! File generated by DesignBuilder - 4.3.0.013 25/11/2014 - 15:04:26
! Source file: C:\Users\jake\Dropbox\AgentConfigurationFiles\DesignBuilder\house.dsb

Version, 8.2.0.001;                               !- Version Identifier

RunPeriod,                                        !- Annual simulation
   Untitled,                                      !- Location
   1,1,                                           !- Start Month , Day
   12,31,                                         !- End Month , Day
   UseWeatherFile,                                !- will use day as shown in weather file
   No,                                            !- Use weather file holidays/special day periods
   No,                                            !- Use WeatherFile DaylightSavingPeriod - will use daylight saving time shown below
   Yes,                                           !- Apply Weekend Holiday Rule - will reassign weekend holidays to Monday
   Yes,                                           !- use weather file rain indicators
   Yes,                                           !- use weather file snow indicators
   1;                                             !- Number of years in simulation

RunPeriodControl:DaylightSavingTime, Last Sunday in March,Last Sunday in October;  !- Daylight saving dates - one hour is added to local mean time to obtain the locally observed time during this period

! Hourly weather file: C:\ProgramData\DesignBuilder\Weather Data\GBR_LONDON_GATWICK_IWEC.epw

Site:Location,Untitled,                           !- Location Name
   51.15,                                         !- Latitude
   -0.18,                                         !- Longitude
   0,                                             !- Time Zone
   62;                                            !- Elevation {m}

Site:GroundTemperature:BuildingSurface,           !- Annual ground temperatures - 1 value for each month
   18,                                            !- Jan ground temperature
   18,                                            !- Feb ground temperature
   18,                                            !- Mar ground temperature
   18,                                            !- Apr ground temperature
   18,                                            !- May ground temperature
   18,                                            !- Jun ground temperature
   18,                                            !- Jul ground temperature
   18,                                            !- Aug ground temperature
   18,                                            !- Sep ground temperature
   18,                                            !- Oct ground temperature
   18,                                            !- Nov ground temperature
   18;                                            !- Dec ground temperature

Site:GroundTemperature:Deep,                      !- Annual ground temperatures - 1 value for each month
   14,                                            !- Jan deep ground temperature
   14,                                            !- Feb deep ground temperature
   14,                                            !- Mar deep ground temperature
   14,                                            !- Apr deep ground temperature
   14,                                            !- May deep ground temperature
   14,                                            !- Jun deep ground temperature
   14,                                            !- Jul deep ground temperature
   14,                                            !- Aug deep ground temperature
   14,                                            !- Sep deep ground temperature
   14,                                            !- Oct deep ground temperature
   14,                                            !- Nov deep ground temperature
   14;                                            !- Dec deep ground temperature

Site:GroundTemperature:Shallow,                   !- Annual ground temperatures - 1 value for each month
   14,                                            !- Jan shallow ground temperature
   14,                                            !- Feb shallow ground temperature
   14,                                            !- Mar shallow ground temperature
   14,                                            !- Apr shallow ground temperature
   14,                                            !- May shallow ground temperature
   14,                                            !- Jun shallow ground temperature
   14,                                            !- Jul shallow ground temperature
   14,                                            !- Aug shallow ground temperature
   14,                                            !- Sep shallow ground temperature
   14,                                            !- Oct shallow ground temperature
   14,                                            !- Nov shallow ground temperature
   14;                                            !- Dec shallow ground temperature

Site:GroundTemperature:FCfactorMethod,            !- Annual ground temperatures - 1 value for each month
   4.16,                                          !- January FCfactorMethod ground temperature {C}
   5.30,                                          !- Februry FCfactorMethod ground temperature {C}
   7.51,                                          !- March FCfactorMethod ground temperature {C}
   9.61,                                          !- April FCfactorMethod ground temperature {C}
   13.58,                                         !- May FCfactorMethod ground temperature {C}
   15.67,                                         !- June FCfactorMethod ground temperature {C}
   16.24,                                         !- July FCfactorMethod ground temperature {C}
   15.18,                                         !- August FCfactorMethod ground temperature {C}
   12.74,                                         !- September FCfactorMethod ground temperature {C}
   9.69,                                          !- October FCfactorMethod ground temperature {C}
   6.69,                                          !- November FCfactorMethod ground temperature {C}
   4.70;                                          !- December FCfactorMethod ground temperature {C}

Site:GroundReflectance,                           !- Annual ground reflectances - 1 value for each month
   0.2,                                           !- Jan ground reflectance
   0.2,                                           !- Feb ground reflectance
   0.2,                                           !- Mar ground reflectance
   0.2,                                           !- Apr ground reflectance
   0.2,                                           !- May ground reflectance
   0.2,                                           !- Jun ground reflectance
   0.2,                                           !- Jul ground reflectance
   0.2,                                           !- Aug ground reflectance
   0.2,                                           !- Sep ground reflectance
   0.2,                                           !- Oct ground reflectance
   0.2,                                           !- Nov ground reflectance
   0.2;                                           !- Dec ground reflectance

Site:GroundReflectance:SnowModifier,
   2.0,                                           !- Ground Reflected Solar Modifier
   2.0;                                           !- Daylighting Ground Reflected Solar Modifier

ProgramControl,
   1;                                             !- Number of threads allowed

SimulationControl,
   Yes,                                           !- Do the zone sizing calculation
   Yes,                                           !- Do the system sizing calculation
   No,                                            !- Do the plant sizing calculation
   No,                                            !- Do the design day calculation
   Yes;                                           !- Do the weather file calculation


SizingPeriod:DesignDay, Summer Design Day in Untitled Jul,  !- Design Day Name
   7,                                             !- Month
   15,                                            !- Day of Month
   SummerDesignDay,                               !- Day Type -- used for schedules
   27.2,                                          !- Maximum Dry-Bulb Temperature {C}
   9.4,                                           !- Daily Dry-Bulb Temperature Range {C}
   ,                                              !- Dry-Bulb Temperature Range Modifier Type
   ,                                              !- Dry-Bulb Temperature Range Modifier Schedule
   WetBulb,                                       !- Humidity Condition Type
   18.7,                                          !- Wetbulb at Maximum Dry-Bulb{C}
   ,                                              !- Humidity Condition Day Schedule Name
   ,                                              !- Humidity Ratio at Maximum Dry-Bulb
   ,                                              !- Enthalpy Ratio at Maximum Dry-Bulb
   ,                                              !- Daily Wet-Bulb Temperature Range
   100582.4,                                      !- Barometric Pressure {N/M**2}
   0,                                             !- Wind Speed {m/s}
   0,                                             !- Wind Direction {Degrees N=0, S=180}
   0,                                             !- Rain Indicator {0-no,1-yes}
   0,                                             !- Snow on ground indicator {0-no,1-yes}
   1,                                             !- Daylight Savings Time Indicator
   ,                                              !- Solar Model Indicator
   ,                                              !- Beam Solar Day Schedule Name
   ,                                              !- Diffuse Solar Day Schedule Name
   ,                                              !- ASHRAE Clear Sky Optical Depth for Beam Irradiance (taub)
   ,                                              !- ASHRAE Clear Sky Optical Depth for Diffuse Irradiance (taud)
   0.98;                                          !- Clearness {0.0 to 1.1}

SizingPeriod:DesignDay, Winter Design Day in Untitled,  !- Design Day Name
   1,                                             !- Month
   15,                                            !- Day of Month
   WinterDesignDay,                               !- Day Type -- used for schedules
   -4.4,                                          !- Max Dry-Bulb {C}
   0,                                             !- Daily Temp Range {C}
   ,                                              !- Dry-Bulb Temperature Range Modifier Type
   ,                                              !- Dry-Bulb Temperature Range Modifier Schedule
   WetBulb,                                       !- Humidity Condition Type
   -4.4,                                          !- Wet-Bulb at Max {C}
   ,                                              !- Humidity Condition Day Schedule Name
   ,                                              !- Humidity Ratio at Maximum Dry-Bulb
   ,                                              !- Enthalpy Ratio at Maximum Dry-Bulb
   ,                                              !- Daily Wet-Bulb Temperature Range
   100582.4,                                      !- Barometric Pressure {N/M**2}
   12.3,                                          !- Wind Speed {M/Sec}
   0,                                             !- Wind Direction {Degrees N=0, S=180}
   0,                                             !- Rain Indicator {0-no,1-yes}
   0,                                             !- Snow on ground indicator {0-no,1-yes}
   0,                                             !- Daylight Savings Time Indicator
   ,                                              !- Solar Model Indicator
   ,                                              !- Beam Solar Day Schedule Name
   ,                                              !- Diffuse Solar Day Schedule Name
   ,                                              !- ASHRAE Clear Sky Optical Depth for Beam Irradiance (taub)
   ,                                              !- ASHRAE Clear Sky Optical Depth for Diffuse Irradiance (taud)
   0;                                             !- Clearness {0.0 to 1.1} - gives no sun (but does include long wave radiant heat exchange with sky)

Timestep, 12;                                      !- Timesteps/hour

ConvergenceLimits,
   1,                                             !- Minimum System Time Step (0=same as zone time step)
   20;                                            !- Maximum HVAC Iterations (1=min, 20=default)

AirflowNetwork:MultiZone:Surface:Crack,           !- Crack used to connect zones to make AIRFLOWNETWORK:MULTIZONE network valid
   DefaultCrack,                                  !- Crack Name
   0.00000000001,                                 !- Flow coeff (kg/s @ 1Pa)
   0.66,                                          !- Flow exponent
   Reference Crack Conditions;                    !- Reference crack conditions

ScheduleTypeLimits, Any Number;                         ! Not limited
ScheduleTypeLimits, Fraction,     0.0, 1.0, CONTINUOUS;
ScheduleTypeLimits, Temperature,  -60, 200, CONTINUOUS;
ScheduleTypeLimits, Control Type,   0,   4, DISCRETE;
ScheduleTypeLimits, On/Off,         0,   1, DISCRETE;

Schedule:Compact,
      On,                                         ! Name
      Any Number,                                 ! Type
      Through: 12/31,                             ! Type
      For: AllDays,                               ! All days in year
      Until: 24:00,                               ! All hours in day
       1;

Schedule:Compact,
      Off,                                        ! Name
      Any Number,                                 ! Type
      Through: 12/31,                             ! Type
      For: AllDays,                               ! All days in year
      Until: 24:00,                               ! All hours in day
       0;

Schedule:Compact,
      Work efficiency,                            ! Name
      Any Number,                                 ! Type
      Through: 12/31,                             ! Type
      For: AllDays,                               ! All days in year
      Until: 24:00,                               ! All hours in day
       0;
Schedule:Compact,
      OpaqueShade,                                ! Name
      Any Number,                                 ! Type
      Through: 12/31,                             ! Type
      For: AllDays,                               ! All days in year
      Until: 24:00,                               ! All hours in day
       0;

Schedule:Compact,
    Zone Comfort Control Type Sched,              !- Name
    Control Type,                                 !- Schedule Type Limits Name
    Through: 12/31,                               !- Field 1
    For: AllDays,                                 !- Field 2
    Until: 24:00,                                 !- Field 3
    4;                                            !- Field 4

Schedule:Compact,
    Design Days Only,                             !- Name
    Any Number,                                   !- Schedule Type Limits Name
    Through: 12/31,                               !- Field 1
    For: SummerDesignDay WinterDesignDay,         !- Field 2
    Until: 24:00,                                 !- Field 3
    1,                                            !- Field 4
    For: AllOtherDays,                            !- Field 2
    Until: 24:00,                                 !- Field 3
    0;

! off heating day
Schedule:Day:Hourly,  0, Any Number,
   0,0,0,0,0,0,0,0,0,0,0,0,0,0,0,0,0,0,0,0,0,0,0,0;

! off cooling day
Schedule:Day:Hourly,  50, Any Number,
   50,50,50,50,50,50,50,50,50,50,50,50,50,50,50,50,50,50,50,50,50,50,50,50;

! used in seasonal schedules
Schedule:Day:Hourly,  Off, Fraction,
   0,0,0,0,0,0,0,0,0,0,0,0,0,0,0,0,0,0,0,0,0,0,0,0;

Schedule:Week:Daily, Off,
   Off,Off,Off,Off,
   Off,Off,Off,Off,
   Off,Off,Off,Off;

! -------------------- Control type schedules (for heating & cooling) ----------------------

Schedule:Day:Hourly, Summer Control Type Day Sch, Control Type,
   4,4,4,4,4,4,4,4,4,4,4,4,4,4,4,4,4,4,4,4,4,4,4,4;

Schedule:Day:Hourly, Winter Control Type Day Sch, Control Type,
   4,4,4,4,4,4,4,4,4,4,4,4,4,4,4,4,4,4,4,4,4,4,4,4;

Schedule:Day:Hourly, Summer Control Type Day Sch - cool, Control Type,
   2,2,2,2,2,2,2,2,2,2,2,2,2,2,2,2,2,2,2,2,2,2,2,2;

Schedule:Day:Hourly, Winter Control Type Day Sch - heat, Control Type,
   1,1,1,1,1,1,1,1,1,1,1,1,1,1,1,1,1,1,1,1,1,1,1,1;

Schedule:Week:Daily, Summer Control Type Week Sch,
   Summer Control Type Day Sch,Summer Control Type Day Sch,Summer Control Type Day Sch,
   Summer Control Type Day Sch,Summer Control Type Day Sch,Summer Control Type Day Sch,
   Summer Control Type Day Sch,Summer Control Type Day Sch,Summer Control Type Day Sch,
   Summer Control Type Day Sch,Summer Control Type Day Sch,Summer Control Type Day Sch;

Schedule:Week:Daily, Winter Control Type Week Sch,
   Winter Control Type Day Sch,Winter Control Type Day Sch,Winter Control Type Day Sch,
   Winter Control Type Day Sch,Winter Control Type Day Sch,Winter Control Type Day Sch,
   Winter Control Type Day Sch,Winter Control Type Day Sch,Winter Control Type Day Sch,
   Winter Control Type Day Sch,Winter Control Type Day Sch,Winter Control Type Day Sch;

Schedule:Week:Daily, Summer Control Type Week Sch - cool,
   Summer Control Type Day Sch - cool,Summer Control Type Day Sch - cool,Summer Control Type Day Sch - cool,
   Summer Control Type Day Sch - cool,Summer Control Type Day Sch - cool,Summer Control Type Day Sch - cool,
   Summer Control Type Day Sch - cool,Summer Control Type Day Sch - cool,Summer Control Type Day Sch - cool,
   Summer Control Type Day Sch - cool,Summer Control Type Day Sch - cool,Summer Control Type Day Sch - cool;

Schedule:Week:Daily, Winter Control Type Week Sch - heat,
   Winter Control Type Day Sch - heat,Winter Control Type Day Sch - heat,Winter Control Type Day Sch - heat,
   Winter Control Type Day Sch - heat,Winter Control Type Day Sch - heat,Winter Control Type Day Sch - heat,
   Winter Control Type Day Sch - heat,Winter Control Type Day Sch - heat,Winter Control Type Day Sch - heat,
   Winter Control Type Day Sch - heat,Winter Control Type Day Sch - heat,Winter Control Type Day Sch - heat;

!Material:InfraredTransparent,
!IRTMaterial; !- Name

!Construction,
!IRTSurface,  !- Name
!IRTMaterial; !- Outside Layer





Material:NoMass,
LinearBridgingLayer,                  ! Material Name
Rough,                                ! Roughness
1 ,                                   ! Resistance {M**2K/W}
0.0100000 ,                           ! Thermal Absorptance
0.0100000 ,                           ! Solar Absorptance
0.0100000 ;                           ! Visible Absorptance

Construction,
LinearBridgingConstruction,           !- Name
LinearBridgingLayer;                  !- Layer

Schedule:Compact,
TypOperativeTempControlSch,
Temperature,
Through: 31 Dec,
For: SummerDesignDay WinterDesignDay,
Until: 24:00, 0.0,
For: AllOtherDays,
Until: 24:00, 0.5;

Schedule:Compact, AirVelocitySchedule,
   Any Number,                                    !- Type
   Through: 12/31,
   For: AllDays,                                  !- All days in year
   Until: 24:00,                                  !- All hours in day
   .137;                                          !- Velocity
Material:InfraredTransparent,
IRTMaterial; !- Name

Construction,
IRTSurface,  !- Name
IRTMaterial; !- Outside Layer


AirflowNetwork:SimulationControl,
   VENT,                                          !- AirflowNetwork Simulation Name
   MultizoneWithoutDistribution,                  !- AirflowNetwork Control
   Input,                                         !- Wind Pressure Coefficient Type
   Cp Data,                                       !- AirflowNetwork Wind Pressure Coefficient Array Name
   OpeningHeight,                                 !- Height Selection for Local Wind Speed Calculation
   LowRise,                                       !- Building Type
   1000,                                          !- Maximum number of iterations
   ZeroNodePressures,                             !- Initialization flag
   .0001,                                         !- Relative airflow convergence tolerance
   .000001,                                       !- Absolute airflow convergence tolerance
   -0.5,                                          !- Convergence acceleration limit
   0,                                             !- Azimuth Angle of Long Axis of Building
   1;                                             !- Ratio of Building Width Along Short Axis to Width Along Long Axis

! Schedule: Off
Schedule:Compact,
7,
Any Number,
Through: 12/31,
For: AllDays,
Until: 24:00,  0  ;


! Schedule: Office_OpenOff_Occ
Schedule:Compact,
2864,
Fraction,
Through: 31 Dec,
For: Weekdays SummerDesignDay,
Until: 07:00, 0,
Until: 08:00, 0.25,
Until: 09:00, 0.5,
Until: 12:00, 1,
Until: 14:00, 0.75,
Until: 17:00, 1,
Until: 18:00, 0.5,
Until: 19:00, 0.25,
Until: 24:00, 0,
For: Weekends,
Until: 24:00, 0,
For: Holidays,
Until: 24:00, 0,
For: WinterDesignDay AllOtherDays,
Until: 24:00, 0;


! Schedule: Office_OpenOff_Equip
Schedule:Compact,
2867,
Fraction,
Through: 31 Dec,
For: Weekdays SummerDesignDay,
Until: 07:00, 0.05,
Until: 20:00, 1,
Until: 24:00, 0.05,
For: Weekends,
Until: 24:00, 0.05,
For: Holidays,
Until: 24:00, 0.05,
For: WinterDesignDay AllOtherDays,
Until: 24:00, 0;


! Schedule: Office_OpenOff_Light
Schedule:Compact,
2868,
Fraction,
Through: 31 Dec,
For: Weekdays SummerDesignDay,
Until: 07:00, 0,
Until: 19:00, 1,
Until: 24:00, 0,
For: Weekends,
Until: 24:00, 0,
For: Holidays,
Until: 24:00, 0,
For: WinterDesignDay AllOtherDays,
Until: 24:00, 0;


! Schedule: Dwell_DomBed_Occ
Schedule:Compact,
3329,
Fraction,
Through: 31 Dec,
For: Weekdays SummerDesignDay,
Until: 07:00, 1,
Until: 08:00, 0.5,
Until: 09:00, 0.25,
Until: 22:00, 0,
Until: 23:00, 0.25,
Until: 24:00, 0.75,
For: Weekends,
Until: 07:00, 1,
Until: 08:00, 0.5,
Until: 09:00, 0.25,
Until: 22:00, 0,
Until: 23:00, 0.25,
Until: 24:00, 0.75,
For: Holidays,
Until: 07:00, 1,
Until: 08:00, 0.5,
Until: 09:00, 0.25,
Until: 22:00, 0,
Until: 23:00, 0.25,
Until: 24:00, 0.75,
For: WinterDesignDay AllOtherDays,
Until: 24:00, 0;


! Schedule: Dwell_DomBed_Light
Schedule:Compact,
3330,
Fraction,
Through: 31 Dec,
For: Weekdays SummerDesignDay,
Until: 07:00, 0,
Until: 10:00, 1,
Until: 19:00, 0,
Until: 23:00, 0.2,
Until: 24:00, 0,
For: Weekends,
Until: 07:00, 0,
Until: 10:00, 1,
Until: 19:00, 0,
Until: 23:00, 0.2,
Until: 24:00, 0,
For: Holidays,
Until: 07:00, 0,
Until: 10:00, 1,
Until: 19:00, 0,
Until: 23:00, 0.2,
Until: 24:00, 0,
For: WinterDesignDay AllOtherDays,
Until: 24:00, 0;


! Schedule: Dwell_DomBed_Equip
Schedule:Compact,
3331,
Fraction,
Through: 31 Dec,
For: Weekdays SummerDesignDay,
Until: 07:00, 0.07,
Until: 08:00, 0.53,
Until: 09:00, 1,
Until: 10:00, 0.53,
Until: 17:00, 0.07,
Until: 18:00, 0.3,
Until: 19:00, 0.53,
Until: 20:00, 0.77,
Until: 22:00, 1,
Until: 23:00, 0.77,
Until: 24:00, 0.3,
For: Weekends,
Until: 07:00, 0.07,
Until: 08:00, 0.53,
Until: 09:00, 1,
Until: 10:00, 0.53,
Until: 17:00, 0.07,
Until: 18:00, 0.3,
Until: 19:00, 0.53,
Until: 20:00, 0.77,
Until: 22:00, 1,
Until: 23:00, 0.77,
Until: 24:00, 0.3,
For: Holidays,
Until: 07:00, 0.07,
Until: 08:00, 0.53,
Until: 09:00, 1,
Until: 10:00, 0.53,
Until: 17:00, 0.07,
Until: 18:00, 0.3,
Until: 19:00, 0.53,
Until: 20:00, 0.77,
Until: 22:00, 1,
Until: 23:00, 0.77,
Until: 24:00, 0.3,
For: WinterDesignDay AllOtherDays,
Until: 24:00, 0;


! Schedule: Dwell_DomBath_Occ
Schedule:Compact,
3334,
Fraction,
Through: 31 Dec,
For: Weekdays SummerDesignDay,
Until: 07:00, 0,
Until: 10:00, 1,
Until: 19:00, 0,
Until: 23:00, 0.2,
Until: 24:00, 0,
For: Weekends,
Until: 07:00, 0,
Until: 10:00, 1,
Until: 19:00, 0,
Until: 23:00, 0.2,
Until: 24:00, 0,
For: Holidays,
Until: 07:00, 0,
Until: 10:00, 1,
Until: 19:00, 0,
Until: 23:00, 0.2,
Until: 24:00, 0,
For: WinterDesignDay AllOtherDays,
Until: 24:00, 0;


! Schedule: Dwell_DomBath_Light
Schedule:Compact,
3335,
Fraction,
Through: 31 Dec,
For: Weekdays SummerDesignDay,
Until: 07:00, 0,
Until: 10:00, 1,
Until: 19:00, 0,
Until: 23:00, 1,
Until: 24:00, 0,
For: Weekends,
Until: 07:00, 0,
Until: 10:00, 1,
Until: 19:00, 0,
Until: 23:00, 1,
Until: 24:00, 0,
For: Holidays,
Until: 07:00, 0,
Until: 10:00, 1,
Until: 19:00, 0,
Until: 23:00, 1,
Until: 24:00, 0,
For: WinterDesignDay AllOtherDays,
Until: 24:00, 0;


! Schedule: Dwell_DomBath_Equip
Schedule:Compact,
3336,
Fraction,
Through: 31 Dec,
For: Weekdays SummerDesignDay,
Until: 06:00, 0.06,
Until: 07:00, 0.29,
Until: 09:00, 1,
Until: 10:00, 0.29,
Until: 18:00, 0.06,
Until: 19:00, 0.53,
Until: 21:00, 1,
Until: 22:00, 0.34,
Until: 24:00, 0.06,
For: Weekends,
Until: 24:00, 0.06,
For: Holidays,
Until: 24:00, 0.06,
For: WinterDesignDay AllOtherDays,
Until: 24:00, 0;


! Schedule: Dwell_DomKitchen_Occ
Schedule:Compact,
3344,
Fraction,
Through: 31 Dec,
For: Weekdays SummerDesignDay,
Until: 07:00, 0,
Until: 10:00, 1,
Until: 19:00, 0,
Until: 23:00, 0.2,
Until: 24:00, 0,
For: Weekends,
Until: 07:00, 0,
Until: 10:00, 1,
Until: 19:00, 0,
Until: 23:00, 0.2,
Until: 24:00, 0,
For: Holidays,
Until: 07:00, 0,
Until: 10:00, 1,
Until: 19:00, 0,
Until: 23:00, 0.2,
Until: 24:00, 0,
For: WinterDesignDay AllOtherDays,
Until: 24:00, 0;


! Schedule: Dwell_DomKitchen_Light
Schedule:Compact,
3345,
Fraction,
Through: 31 Dec,
For: Weekdays SummerDesignDay,
Until: 07:00, 0,
Until: 10:00, 1,
Until: 19:00, 0,
Until: 23:00, 1,
Until: 24:00, 0,
For: Weekends,
Until: 07:00, 0,
Until: 10:00, 1,
Until: 19:00, 0,
Until: 23:00, 1,
Until: 24:00, 0,
For: Holidays,
Until: 07:00, 0,
Until: 10:00, 1,
Until: 19:00, 0,
Until: 23:00, 1,
Until: 24:00, 0,
For: WinterDesignDay AllOtherDays,
Until: 24:00, 0;


! Schedule: Dwell_DomKitchen_Equip
Schedule:Compact,
3346,
Fraction,
Through: 31 Dec,
For: Weekdays SummerDesignDay,
Until: 07:00, 0.07,
Until: 10:00, 1,
Until: 19:00, 0.07,
Until: 23:00, 0.25,
Until: 24:00, 0.07,
For: Weekends,
Until: 07:00, 0.07,
Until: 10:00, 1,
Until: 19:00, 0.07,
Until: 23:00, 0.25,
Until: 24:00, 0.07,
For: Holidays,
Until: 07:00, 0.07,
Until: 10:00, 1,
Until: 19:00, 0.07,
Until: 23:00, 0.25,
Until: 24:00, 0.07,
For: WinterDesignDay AllOtherDays,
Until: 24:00, 0;


! Schedule: Dwell_DomLounge_Occ
Schedule:Compact,
3349,
Fraction,
Through: 31 Dec,
For: Weekdays SummerDesignDay,
Until: 16:00, 0,
Until: 18:00, 0.5,
Until: 22:00, 1,
Until: 23:00, 0.67,
Until: 24:00, 0,
For: Weekends,
Until: 16:00, 0,
Until: 18:00, 0.5,
Until: 22:00, 1,
Until: 23:00, 0.67,
Until: 24:00, 0,
For: Holidays,
Until: 16:00, 0,
Until: 18:00, 0.5,
Until: 22:00, 1,
Until: 23:00, 0.67,
Until: 24:00, 0,
For: WinterDesignDay AllOtherDays,
Until: 24:00, 0;


! Schedule: Dwell_DomLounge_Light
Schedule:Compact,
3350,
Fraction,
Through: 31 Dec,
For: Weekdays SummerDesignDay,
Until: 16:00, 0,
Until: 23:00, 1,
Until: 24:00, 0,
For: Weekends,
Until: 16:00, 0,
Until: 23:00, 1,
Until: 24:00, 0,
For: Holidays,
Until: 16:00, 0,
Until: 23:00, 1,
Until: 24:00, 0,
For: WinterDesignDay AllOtherDays,
Until: 24:00, 0;


! Schedule: Dwell_DomLounge_Equip
Schedule:Compact,
3351,
Fraction,
Through: 31 Dec,
For: Weekdays SummerDesignDay,
Until: 16:00, 0.06,
Until: 18:00, 0.53,
Until: 22:00, 1,
Until: 23:00, 0.69,
Until: 24:00, 0.06,
For: Weekends,
Until: 07:00, 0.06,
Until: 23:00, 1,
Until: 24:00, 0.34,
For: Holidays,
Until: 07:00, 0.06,
Until: 23:00, 1,
Until: 24:00, 0.34,
For: WinterDesignDay AllOtherDays,
Until: 24:00, 0;


! Schedule: Dwell_DomCirculation_Occ
Schedule:Compact,
3354,
Fraction,
Through: 31 Dec,
For: Weekdays SummerDesignDay,
Until: 07:00, 0,
Until: 10:00, 1,
Until: 19:00, 0,
Until: 23:00, 0.2,
Until: 24:00, 0,
For: Weekends,
Until: 07:00, 0,
Until: 23:00, 1,
Until: 24:00, 0.3,
For: Holidays,
Until: 07:00, 0,
Until: 23:00, 1,
Until: 24:00, 0.3,
For: WinterDesignDay AllOtherDays,
Until: 24:00, 0;


! Schedule: Dwell_DomCirculation_Light
Schedule:Compact,
3355,
Fraction,
Through: 31 Dec,
For: Weekdays SummerDesignDay,
Until: 07:00, 0,
Until: 10:00, 1,
Until: 19:00, 0,
Until: 23:00, 1,
Until: 24:00, 0,
For: Weekends,
Until: 07:00, 0,
Until: 24:00, 1,
For: Holidays,
Until: 07:00, 0,
Until: 24:00, 1,
For: WinterDesignDay AllOtherDays,
Until: 24:00, 0;


! Schedule: Dwell_DomCirculation_Equip
Schedule:Compact,
3356,
Fraction,
Through: 31 Dec,
For: Weekdays SummerDesignDay,
Until: 07:00, 0.06,
Until: 08:00, 0.53,
Until: 09:00, 1,
Until: 10:00, 0.53,
Until: 17:00, 0.06,
Until: 18:00, 0.3,
Until: 19:00, 0.53,
Until: 20:00, 0.77,
Until: 22:00, 1,
Until: 23:00, 0.77,
Until: 24:00, 0.3,
For: Weekends,
Until: 07:00, 0.06,
Until: 23:00, 1,
Until: 24:00, 0.34,
For: Holidays,
Until: 07:00, 0.06,
Until: 23:00, 1,
Until: 24:00, 0.34,
For: WinterDesignDay AllOtherDays,