! File generated by DesignBuilder - 5.0.0.102 21/04/2016 - 23:39:33
! Source file: C:\Users\jacobC1\Dropbox\DesignBuilder\phdmodels\office1.dsb

Version, 8.3.0.001;                               !- Version Identifier

RunPeriod,                                        !- Annual simulation
   Office,                        !- Location
   1,1,                                           !- Start Month , Day
   12,31,                                         !- End Month , Day
   monday,                                !- will use day as shown in weather file
   No,                                            !- Use weather file holidays/special day periods
   No,                                            !- Use WeatherFile DaylightSavingPeriod - will use daylight saving time shown below
   Yes,                                           !- Apply Weekend Holiday Rule - will reassign weekend holidays to Monday
   Yes,                                           !- use weather file rain indicators
   Yes,                                           !- use weather file snow indicators
   1;                                             !- Number of years in simulation

RunPeriodControl:DaylightSavingTime, Last Sunday in March,Last Sunday in October;  !- Daylight saving dates - one hour is added to local mean time to obtain the locally observed time during this period

! Hourly weather file: C:\ProgramData\DesignBuilder\Weather Data\GBR_LONDON_GATWICK_IWEC.epw

Site:Location,Simple-Office,                      !- Location Name
   47.34,                                         !- Latitude
   7.36,                                         !- Longitude
   1,                                             !- Time Zone
   260;                                            !- Elevation {m}

Site:GroundTemperature:BuildingSurface,           !- Annual ground temperatures - 1 value for each month
   18,                                            !- Jan ground temperature
   18,                                            !- Feb ground temperature
   18,                                            !- Mar ground temperature
   18,                                            !- Apr ground temperature
   18,                                            !- May ground temperature
   18,                                            !- Jun ground temperature
   18,                                            !- Jul ground temperature
   18,                                            !- Aug ground temperature
   18,                                            !- Sep ground temperature
   18,                                            !- Oct ground temperature
   18,                                            !- Nov ground temperature
   18;                                            !- Dec ground temperature

Site:GroundTemperature:Deep,                      !- Annual ground temperatures - 1 value for each month
   14,                                            !- Jan deep ground temperature
   14,                                            !- Feb deep ground temperature
   14,                                            !- Mar deep ground temperature
   14,                                            !- Apr deep ground temperature
   14,                                            !- May deep ground temperature
   14,                                            !- Jun deep ground temperature
   14,                                            !- Jul deep ground temperature
   14,                                            !- Aug deep ground temperature
   14,                                            !- Sep deep ground temperature
   14,                                            !- Oct deep ground temperature
   14,                                            !- Nov deep ground temperature
   14;                                            !- Dec deep ground temperature

Site:GroundTemperature:Shallow,                   !- Annual ground temperatures - 1 value for each month
   14,                                            !- Jan shallow ground temperature
   14,                                            !- Feb shallow ground temperature
   14,                                            !- Mar shallow ground temperature
   14,                                            !- Apr shallow ground temperature
   14,                                            !- May shallow ground temperature
   14,                                            !- Jun shallow ground temperature
   14,                                            !- Jul shallow ground temperature
   14,                                            !- Aug shallow ground temperature
   14,                                            !- Sep shallow ground temperature
   14,                                            !- Oct shallow ground temperature
   14,                                            !- Nov shallow ground temperature
   14;                                            !- Dec shallow ground temperature

Site:GroundTemperature:FCfactorMethod,            !- Annual ground temperatures - 1 value for each month
   4.16,                                          !- January FCfactorMethod ground temperature {C}
   5.30,                                          !- Februry FCfactorMethod ground temperature {C}
   7.51,                                          !- March FCfactorMethod ground temperature {C}
   9.61,                                          !- April FCfactorMethod ground temperature {C}
   13.58,                                         !- May FCfactorMethod ground temperature {C}
   15.67,                                         !- June FCfactorMethod ground temperature {C}
   16.24,                                         !- July FCfactorMethod ground temperature {C}
   15.18,                                         !- August FCfactorMethod ground temperature {C}
   12.74,                                         !- September FCfactorMethod ground temperature {C}
   9.69,                                          !- October FCfactorMethod ground temperature {C}
   6.69,                                          !- November FCfactorMethod ground temperature {C}
   4.70;                                          !- December FCfactorMethod ground temperature {C}

Site:GroundReflectance,                           !- Annual ground reflectances - 1 value for each month
   0.2,                                           !- Jan ground reflectance
   0.2,                                           !- Feb ground reflectance
   0.2,                                           !- Mar ground reflectance
   0.2,                                           !- Apr ground reflectance
   0.2,                                           !- May ground reflectance
   0.2,                                           !- Jun ground reflectance
   0.2,                                           !- Jul ground reflectance
   0.2,                                           !- Aug ground reflectance
   0.2,                                           !- Sep ground reflectance
   0.2,                                           !- Oct ground reflectance
   0.2,                                           !- Nov ground reflectance
   0.2;                                           !- Dec ground reflectance

Site:GroundReflectance:SnowModifier,
   2.0,                                           !- Ground Reflected Solar Modifier
   2.0;                                           !- Daylighting Ground Reflected Solar Modifier

ProgramControl,
   1;                                             !- Number of threads allowed

SimulationControl,
   Yes,                                           !- Do the zone sizing calculation
   Yes,                                           !- Do the system sizing calculation
   Yes,                                           !- Do the plant sizing calculation
   No,                                            !- Do the design day calculation
   Yes;                                           !- Do the weather file calculation


SizingPeriod:DesignDay, Summer Design Day in Untitled (01-01:31-12) Jul,  !- Design Day Name
   7,                                             !- Month
   15,                                            !- Day of Month
   SummerDesignDay,                               !- Day Type -- used for schedules
   27.2,                                          !- Maximum Dry-Bulb Temperature {C}
   9.4,                                           !- Daily Dry-Bulb Temperature Range {C}
   ,                                              !- Dry-Bulb Temperature Range Modifier Type
   ,                                              !- Dry-Bulb Temperature Range Modifier Schedule
   WetBulb,                                       !- Humidity Condition Type
   18.7,                                          !- Wetbulb at Maximum Dry-Bulb{C}
   ,                                              !- Humidity Condition Day Schedule Name
   ,                                              !- Humidity Ratio at Maximum Dry-Bulb
   ,                                              !- Enthalpy Ratio at Maximum Dry-Bulb
   ,                                              !- Daily Wet-Bulb Temperature Range
   100582.4,                                      !- Barometric Pressure {N/M**2}
   0,                                             !- Wind Speed {m/s}
   0,                                             !- Wind Direction {Degrees N=0, S=180}
   No,                                            !- Rain Indicator
   No,                                            !- Snow on ground indicator
   Yes,                                           !- Daylight Savings Time Indicator
   ,                                              !- Solar Model Indicator
   ,                                              !- Beam Solar Day Schedule Name
   ,                                              !- Diffuse Solar Day Schedule Name
   ,                                              !- ASHRAE Clear Sky Optical Depth for Beam Irradiance (taub)
   ,                                              !- ASHRAE Clear Sky Optical Depth for Diffuse Irradiance (taud)
   0.98;                                          !- Clearness {0.0 to 1.1}

SizingPeriod:DesignDay, Winter Design Day in Untitled (01-01:31-12),  !- Design Day Name
   1,                                             !- Month
   15,                                            !- Day of Month
   WinterDesignDay,                               !- Day Type -- used for schedules
   -4.4,                                          !- Max Dry-Bulb {C}
   0,                                             !- Daily Temp Range {C}
   ,                                              !- Dry-Bulb Temperature Range Modifier Type
   ,                                              !- Dry-Bulb Temperature Range Modifier Schedule
   WetBulb,                                       !- Humidity Condition Type
   -4.4,                                          !- Wet-Bulb at Max {C}
   ,                                              !- Humidity Condition Day Schedule Name
   ,                                              !- Humidity Ratio at Maximum Dry-Bulb
   ,                                              !- Enthalpy Ratio at Maximum Dry-Bulb
   ,                                              !- Daily Wet-Bulb Temperature Range
   100582.4,                                      !- Barometric Pressure {N/M**2}
   12.3,                                          !- Wind Speed {M/Sec}
   0,                                             !- Wind Direction {Degrees N=0, S=180}
   No,                                            !- Rain Indicator
   No,                                            !- Snow on ground indicator
   No,                                            !- Daylight Savings Time Indicator
   ,                                              !- Solar Model Indicator
   ,                                              !- Beam Solar Day Schedule Name
   ,                                              !- Diffuse Solar Day Schedule Name
   ,                                              !- ASHRAE Clear Sky Optical Depth for Beam Irradiance (taub)
   ,                                              !- ASHRAE Clear Sky Optical Depth for Diffuse Irradiance (taud)
   0;                                             !- Clearness {0.0 to 1.1} - gives no sun (but does include long wave radiant heat exchange with sky)

Timestep, 12;                                     !- Timesteps/hour

ConvergenceLimits,
   1,                                             !- Minimum System Time Step (0=same as zone time step)
   25;                                            !- Maximum HVAC Iterations (1=min, 20=default)

AirflowNetwork:MultiZone:Surface:Crack,           !- Crack used to connect zones to make AIRFLOWNETWORK:MULTIZONE network valid
   DefaultCrack,                                  !- Crack Name
   0.00000000001,                                 !- Flow coeff (kg/s @ 1Pa)
   0.66,                                          !- Flow exponent
   Reference Crack Conditions;                    !- Reference crack conditions

ScheduleTypeLimits, Any Number;                         ! Not limited
ScheduleTypeLimits, Fraction,     0.0, 1.0, CONTINUOUS;
ScheduleTypeLimits, Temperature,  -60, 200, CONTINUOUS;
ScheduleTypeLimits, Control Type,   0,   4, DISCRETE;
ScheduleTypeLimits, On/Off,         0,   1, DISCRETE;

Schedule:Compact,
      On,                                         ! Name
      Any Number,                                 ! Type
      Through: 12/31,                             ! Type
      For: AllDays,                               ! All days in year
      Until: 24:00,                               ! All hours in day
       1;

Schedule:Compact,
      Off,                                        ! Name
      Any Number,                                 ! Type
      Through: 12/31,                             ! Type
      For: AllDays,                               ! All days in year
      Until: 24:00,                               ! All hours in day
       0;

Schedule:Compact,
      Work efficiency,                            ! Name
      Any Number,                                 ! Type
      Through: 12/31,                             ! Type
      For: AllDays,                               ! All days in year
      Until: 24:00,                               ! All hours in day
       0;
Schedule:Compact,
      OpaqueShade,                                ! Name
      Any Number,                                 ! Type
      Through: 12/31,                             ! Type
      For: AllDays,                               ! All days in year
      Until: 24:00,                               ! All hours in day
       0;

Schedule:Compact,
    Zone Comfort Control Type Sched,              !- Name
    Control Type,                                 !- Schedule Type Limits Name
    Through: 12/31,                               !- Field 1
    For: AllDays,                                 !- Field 2
    Until: 24:00,                                 !- Field 3
    4;                                            !- Field 4

Schedule:Compact,
    Design Days Only,                             !- Name
    Any Number,                                   !- Schedule Type Limits Name
    Through: 12/31,                               !- Field 1
    For: SummerDesignDay WinterDesignDay,         !- Field 2
    Until: 24:00,                                 !- Field 3
    1,                                            !- Field 4
    For: AllOtherDays,                            !- Field 2
    Until: 24:00,                                 !- Field 3
    0;

! off heating day
Schedule:Day:Hourly,  0, Any Number,
   0,0,0,0,0,0,0,0,0,0,0,0,0,0,0,0,0,0,0,0,0,0,0,0;

! off cooling day
Schedule:Day:Hourly,  50, Any Number,
   50,50,50,50,50,50,50,50,50,50,50,50,50,50,50,50,50,50,50,50,50,50,50,50;

! used in seasonal schedules
Schedule:Day:Hourly,  Off, Fraction,
   0,0,0,0,0,0,0,0,0,0,0,0,0,0,0,0,0,0,0,0,0,0,0,0;

Schedule:Week:Daily, Off,
   Off,Off,Off,Off,
   Off,Off,Off,Off,
   Off,Off,Off,Off;

! -------------------- Control type schedules (for heating & cooling) ----------------------

Schedule:Day:Hourly, Summer Control Type Day Sch, Control Type,
   4,4,4,4,4,4,4,4,4,4,4,4,4,4,4,4,4,4,4,4,4,4,4,4;

Schedule:Day:Hourly, Winter Control Type Day Sch, Control Type,
   4,4,4,4,4,4,4,4,4,4,4,4,4,4,4,4,4,4,4,4,4,4,4,4;

Schedule:Day:Hourly, Summer Control Type Day Sch - cool, Control Type,
   2,2,2,2,2,2,2,2,2,2,2,2,2,2,2,2,2,2,2,2,2,2,2,2;

Schedule:Day:Hourly, Winter Control Type Day Sch - heat, Control Type,
   1,1,1,1,1,1,1,1,1,1,1,1,1,1,1,1,1,1,1,1,1,1,1,1;

Schedule:Week:Daily, Summer Control Type Week Sch,
   Summer Control Type Day Sch,Summer Control Type Day Sch,Summer Control Type Day Sch,
   Summer Control Type Day Sch,Summer Control Type Day Sch,Summer Control Type Day Sch,
   Summer Control Type Day Sch,Summer Control Type Day Sch,Summer Control Type Day Sch,
   Summer Control Type Day Sch,Summer Control Type Day Sch,Summer Control Type Day Sch;

Schedule:Week:Daily, Winter Control Type Week Sch,
   Winter Control Type Day Sch,Winter Control Type Day Sch,Winter Control Type Day Sch,
   Winter Control Type Day Sch,Winter Control Type Day Sch,Winter Control Type Day Sch,
   Winter Control Type Day Sch,Winter Control Type Day Sch,Winter Control Type Day Sch,
   Winter Control Type Day Sch,Winter Control Type Day Sch,Winter Control Type Day Sch;

Schedule:Week:Daily, Summer Control Type Week Sch - cool,
   Summer Control Type Day Sch - cool,Summer Control Type Day Sch - cool,Summer Control Type Day Sch - cool,
   Summer Control Type Day Sch - cool,Summer Control Type Day Sch - cool,Summer Control Type Day Sch - cool,
   Summer Control Type Day Sch - cool,Summer Control Type Day Sch - cool,Summer Control Type Day Sch - cool,
   Summer Control Type Day Sch - cool,Summer Control Type Day Sch - cool,Summer Control Type Day Sch - cool;

Schedule:Week:Daily, Winter Control Type Week Sch - heat,
   Winter Control Type Day Sch - heat,Winter Control Type Day Sch - heat,Winter Control Type Day Sch - heat,
   Winter Control Type Day Sch - heat,Winter Control Type Day Sch - heat,Winter Control Type Day Sch - heat,
   Winter Control Type Day Sch - heat,Winter Control Type Day Sch - heat,Winter Control Type Day Sch - heat,
   Winter Control Type Day Sch - heat,Winter Control Type Day Sch - heat,Winter Control Type Day Sch - heat;

!Material:InfraredTransparent,
!IRTMaterial; !- Name

!Construction,
!IRTSurface,  !- Name
!IRTMaterial; !- Outside Layer





Material:NoMass,
LinearBridgingLayer,                  ! Material Name
Rough,                                ! Roughness
0.6267 ,                              ! Resistance {M**2K/W} will give Total Resistance 1
0.0100000 ,                           ! Thermal Absorptance
0.0100000 ,                           ! Solar Absorptance
0.0100000 ;                           ! Visible Absorptance

Construction,
LinearBridgingConstruction,           !- Name
LinearBridgingLayer;                  !- Layer

Schedule:Compact,
TypOperativeTempControlSch,
Temperature,
Through: 31 Dec,
For: SummerDesignDay WinterDesignDay,
Until: 24:00, 0.0,
For: AllOtherDays,
Until: 24:00, 0.5;

Schedule:Compact, AirVelocitySchedule,
   Any Number,                                    !- Type
   Through: 12/31,
   For: AllDays,                                  !- All days in year
   Until: 24:00,                                  !- All hours in day
   .137;                                          !- Velocity
Material:InfraredTransparent,
IRTMaterial; !- Name

Construction,
IRTSurface,  !- Name
IRTMaterial; !- Outside Layer


AirflowNetwork:SimulationControl,
   VENT,                                          !- AirflowNetwork Simulation Name
   MultizoneWithoutDistribution,                  !- AirflowNetwork Control
   Input,                                         !- Wind Pressure Coefficient Type
   Cp Data,                                       !- AirflowNetwork Wind Pressure Coefficient Array Name
   OpeningHeight,                                 !- Height Selection for Local Wind Speed Calculation
   LowRise,                                       !- Building Type
   1000,                                          !- Maximum number of iterations
   ZeroNodePressures,                             !- Initialization flag
   .0001,                                         !- Relative airflow convergence tolerance
   .000001,                                       !- Absolute airflow convergence tolerance
   -0.5,                                          !- Convergence acceleration limit
   0,                                             !- Azimuth Angle of Long Axis of Building
   1;                                             !- Ratio of Building Width Along Short Axis to Width Along Long Axis

! Schedule: On 24/7
Schedule:Compact,
On 24/7,
Any Number,
Through: 12/31,
For: AllDays,
Until: 24:00,   1 ;


! Schedule: Off 24/7
Schedule:Compact,
Off 24/7,
Any Number,
Through: 12/31,
For: AllDays,
Until: 24:00,  0  ;


! Schedule: Hot Water flow set point temperature: Always 80.0 C
Schedule:Compact,
Hot Water flow set point temperature: Always 80.0 C,
Any Number,
Through: 12/31,
For: AllDays,
Until: 24:00,   80 ;


! Modified schedule: Office_OpenOff_Heat
Schedule:Compact,
Heating set point schedule,
Temperature,
Through: 31 Dec,
For: Weekdays SummerDesignDay WinterDesignDay,
Until: 05:00,  15,
Until: 19:00,  21,
Until: 24:00,  15,
For: Weekends,
Until: 24:00,  15,
For: Holidays,
Until: 24:00,  15,
For: AllOtherDays,
Until: 24:00, 15;


! Modified schedule: Office_OpenOff_Cool
Schedule:Compact,
Cooling set point schedule,
Temperature,
Through: 31 Dec,
For: Weekdays SummerDesignDay,
Until: 05:00, 100,
Until: 19:00, 100,
Until: 24:00, 100,
For: Weekends,
Until: 24:00, 100,
For: Holidays,
Until: 24:00, 100,
For: WinterDesignDay AllOtherDays,
Until: 24:00, 100;

! Schedule: Control type schedule: Always 4
Schedule:Compact,
Control type schedule: Always 4,
Any Number,
Through: 12/31,
For: AllDays,
Until: 24:00,    4 ;


! Schedule: Relative humidity setpoint schedule: Always 50.00
Schedule:Compact,
Relative humidity setpoint schedule: Always 50.00,
Any Number,
Through: 12/31,
For: AllDays,
Until: 24:00,   50 ;


! Schedule: Heating Fanger comfort setpoint: Always -0.5
Schedule:Compact,
Heating Fanger comfort setpoint: Always -0.5,
Any Number,
Through: 12/31,
For: AllDays,
Until: 24:00,  -0.5;


! Schedule: Cooling Fanger comfort setpoint: Always  0.1
Schedule:Compact,
Cooling Fanger comfort setpoint: Always  0.1,
Any Number,
Through: 12/31,
For: AllDays,
Until: 24:00,   0.1;


! Schedule: Fan operation mode - Cycling
Schedule:Compact,
Fan operation mode - Cycling,
Any Number,
Through: 12/31,
For: AllDays,
Until: 24:00,  0  ;


! Schedule: Zone CO2 setpoint: Always 900ppm
Schedule:Compact,
Zone CO2 setpoint: Always 900ppm,
Any Number,
Through: 12/31,
For: AllDays,
Until: 24:00,  900  ;


! Schedule: Min CO2 concentration: Always 600ppm
Schedule:Compact,
Min CO2 concentration: Always 600ppm,
Any Number,
Through: 12/31,
For: AllDays,
Until: 24:00,  600  ;


! Schedule: Generic contaminant setpoint: Always 0.5ppm
Schedule:Compact,
Generic contaminant setpoint: Always 0.5ppm,
Any Number,
Through: 12/31,
For: AllDays,
Until: 24:00,  0.5  ;


! Schedule: Air distribution effectiveness (always 1)
Schedule:Compact,
Air distribution effectiveness (always 1),
Any Number,
Through: 12/31,
For: AllDays,
Until: 24:00, 1;


! Schedule: Office_OpenOff_Occ
Schedule:Compact,
Office_OpenOff_Occ,
Fraction,
Through: 31 Dec,
For: Weekdays SummerDesignDay,
Until: 07:00, 0,
Until: 08:00, 0.25,
Until: 09:00, 0.5,
Until: 12:00, 1,
Until: 14:00, 0.75,
Until: 17:00, 1,
Until: 18:00, 0.5,
Until: 19:00, 0.25,
Until: 24:00, 0,
For: Weekends,
Until: 24:00, 0,
For: Holidays,
Until: 24:00, 0,
For: WinterDesignDay AllOtherDays,
Until: 24:00, 0;


! Schedule: Office_OpenOff_Equip
Schedule:Compact,
Office_OpenOff_Equip,
Fraction,
Through: 31 Dec,
For: Weekdays SummerDesignDay,
Until: 07:00, 0.05394,
Until: 20:00, 1,
Until: 24:00, 0.05394,
For: Weekends,
Until: 24:00, 0.05394,
For: Holidays,
Until: 24:00, 0.05394,
For: WinterDesignDay AllOtherDays,
Until: 24:00, 0;


! Schedule: Office_OpenOff_Light
Schedule:Compact,
Office_OpenOff_Light,
Fraction,
Through: 31 Dec,
For: Weekdays SummerDesignDay,
Until: 07:00, 0,
Until: 19:00, 1,
Until: 24:00, 0,
For: Weekends,
Until: 24:00, 0,
For: Holidays,
Until: 24:00, 0,
For: WinterDesignDay AllOtherDays,
Until: 24:00, 0;


! Schedule: Loop high setpoint temperature: Always 32.00
Schedule:Compact,
Loop high setpoint temperature: Always 32.00,
Any Number,
Through: 12/31,
For: AllDays,
Until: 24:00, 32;


! Schedule: Loop low setpoint temperature: Always 15.00
Schedule:Compact,
Loop low setpoint temperature: Always 15.00,
Any Number,
Through: 12/31,
For: AllDays,
Until: 24:00, 15;


Schedule:Compact, 20001,
Any Number,
Through: 12/31,
For: Weekdays Weekends SummerDesignDays,
Until: 24:00,  24,
For: WinterDesignDays,
Until: 24:00, 0,
For: AllOtherDays,
Until: 24:00,  24;

WindowMaterial:Gas,1002,                          !- AIR 13MM
   Air,                                           !- Gas type (Air - Argon - Krypton - Xenon - SF6 - Custom)
    .013;                                         !- Thickness {m}

WindowMaterial:Gas,Half thickness 1002,           !- AIR 13MM
   Air,                                           !- Gas type (Air - Argon - Krypton - Xenon - SF6 - Custom)
    .0065;                                        !- Thickness {m}


WindowMaterial:Glazing,2,                         !- Generic CLEAR 3MM
   SpectralAverage,                               !- Optical data type {SpectralAverage or Spectral}
   ,                                              !- Name of spectral data set when Optical Data Type = Spectral
   .003,                                          !- Thickness {m}
   .837,                                          !- Solar transmittance at normal incidence
   .075,                                          !- Solar reflectance at normal incidence: front side
   .075,                                          !- Solar reflectance at normal incidence: back side
   .898,                                          !- Visible transmittance at normal incidence
   .081,                                          !- Visible reflectance at normal incidence: front side
   .081,                                          !- Visible reflectance at normal incidence: back side
   .0,                                            !- IR transmittance at normal incidence
   .84,                                           !- IR emissivity: front side
   .84,                                           !- IR emissivity: back side
   .9,                                            !- Conductivity {W/m-K}
   1;                                             !- Dirt Correction Factor for Solar and Visible Transmittance

WindowMaterial:Glazing,38,                        !- Generic PYR B CLEAR 3MM
   SpectralAverage,                               !- Optical data type {SpectralAverage or Spectral}
   ,                                              !- Name of spectral data set when Optical Data Type = Spectral
   .003,                                          !- Thickness {m}
   .740,                                          !- Solar transmittance at normal incidence
   .090,                                          !- Solar reflectance at normal incidence: front side
   .100,                                          !- Solar reflectance at normal incidence: back side
   .820,                                          !- Visible transmittance at normal incidence
   .110,                                          !- Visible reflectance at normal incidence: front side
   .120,                                          !- Visible reflectance at normal incidence: back side
   .0,                                            !- IR transmittance at normal incidence
   .84,                                           !- IR emissivity: front side
   .20,                                           !- IR emissivity: back side
   .9,                                            !- Conductivity {W/m-K}
   1;                                             !- Dirt Correction Factor for Solar and Visible Transmittance

WindowMaterial:Shade,20005,                       !- High reflectance - low transmittance shade
   .1,                                            !- Solar transmittance
   .8,                                            !- Solar reflectance
   .7,                                            !- Visible transmittance
   .2,                                            !- Visible reflectance
   .9,                                            !- IR Thermal emissivity
   0,                                             !- IR Thermal transmittance
   .005,                                          !- Thickness {m}
   .1,                                            !- Conductivity {W/m-K}
   .05,                                           !- Shade-to-glass distance
   .5,                                            !- Shade top opening multiplier